/*--------------------------------*- C++ -*----------------------------------*\
| =========                 |                                                 |
| \\      /  F ield         | OpenFOAM: The Open Source CFD Toolbox           |
|  \\    /   O peration     | Version:  7                                     |
|   \\  /    A nd           | Web:      www.OpenFOAM.com                      |
|    \\/     M anipulation  |                                                 |
\*---------------------------------------------------------------------------*/
FoamFile
{
    version     2.0;
    format      ascii;
    class       dictionary;
    object      createPatchDict;
}
// * * * * * * * * * * * * * * * * * * * * * * * * * * * * * * * * * * * * * //

pointSync false;

// Patches to create.
patches
(
    {
        // Name of new patch
        name inlet;

        patchInfo
        {
            type patch;
        }

        // How to construct: either from 'patches' or 'set'
        constructFrom patches;

        // If constructFrom = patches : names of patches. Wildcards allowed.
        patches (minX);

        // If constructFrom = set : name of faceSet
        set f0;
    }

    {
        // Name of new patch
        name outlet;

        patchInfo
        {
            type patch;
        }

        constructFrom patches;

        patches (maxX);

    }

    {
        // Name of new patch
        name side1;

        patchInfo
        {
            type symmetry;
        }

        constructFrom patches;

        patches (minY);

    }

    {
        // Name of new patch
        name side2;

        patchInfo
        {
            type symmetry;
        }

        constructFrom patches;

        patches (maxY);

    }

    {
        // Name of new patch
        name ground;

        patchInfo
        {
            //type patch;
            type wall;
        }

        constructFrom patches;

        patches (minZ);

    }

    {
        // Name of new patch
        name top;

        patchInfo
        {
            type symmetry;
        }

        constructFrom patches;

        patches (maxZ);

    }
);

// ************************************************************************* //
