/*--------------------------------*- C++ -*----------------------------------*\
| =========                 |                                                 |
| \\      /  F ield         | OpenFOAM: The Open Source CFD Toolbox           |
|  \\    /   O peration     | Version:  7                                     |
|   \\  /    A nd           | Web:      www.OpenFOAM.com                      |
|    \\/     M anipulation  |                                                 |
\*---------------------------------------------------------------------------*/
FoamFile
{
    version     2.0;
    format      ascii;
    class       dictionary;
    object      fvSchemes;
}
// * * * * * * * * * * * * * * * * * * * * * * * * * * * * * * * * * * * * * //

ddtSchemes
{
    default         steadyState;
}

gradSchemes
{
  //default         Gauss linear;

  default         cellLimited Gauss linear 1;
  grad(U)         cellLimited Gauss linear 1;
  grad(p)         cellLimited Gauss linear 0.5;

  limited         	cellLimited Gauss linear 1;
  unlimitedGrad(U)      cellLimited Gauss linear 0;
}

divSchemes
{
    default         none;

    div(phi,U)       bounded Gauss linearUpwindV Grad(U);
    //div(phi,U)       bounded Gauss LUST unlimitedGrad(U);
    //div(phi,U)       bounded Gauss linear;
    //div(phi,U)       bounded Gauss upwind;
    //div(phi,U)       bounded Gauss limitedLinearV 1;

    //div(phi,k)       bounded Gauss upwind;
    //div(phi,omega)   bounded Gauss upwind;
    div(phi,k)       bounded Gauss linearUpwind limited;
    div(phi,omega)   bounded Gauss linearUpwind limited;
    //div(phi,k)       bounded Gauss limitedLinear 1;
    //div(phi,omega)   bounded Gauss limitedLinear 1;

    div((nuEff*dev2(T(grad(U))))) Gauss linear;
}

laplacianSchemes
{
    default         Gauss linear limited 0.5;
}

interpolationSchemes
{
    default         linear;
}

snGradSchemes
{
    default         limited 0.5;
}

//For kOmegaSST
wallDist
{
    method meshWave;
}

// ************************************************************************* //
