/*--------------------------------*- C++ -*----------------------------------*\
| =========                 |                                                 |
| \\      /  F ield         | OpenFOAM: The Open Source CFD Toolbox           |
|  \\    /   O peration     | Version:  7                                     |
|   \\  /    A nd           | Web:      www.OpenFOAM.com                      |
|    \\/     M anipulation  |                                                 |
\*---------------------------------------------------------------------------*/
FoamFile
{
    version     2.0;
    format      ascii;
    class       extendedFeatureEdgeMesh;
    object      ab1.extendedFeatureEdgeMesh;
}
// * * * * * * * * * * * * * * * * * * * * * * * * * * * * * * * * * * * * * //

// points
10((-0.42199999 -0.1945 0.338) (-0.42199999 0.1945 0.338) (0.52200001 -0.1945 0.262072) (0.52200001 0.1945 0.262072) (-0.42199999 0.1945 0.050000001) (0.52200001 0.1945 0.050000001) (0.52200001 -0.1945 0.050000001) (-0.42199999 -0.1945 0.050000001) (0.31338799 -0.1945 0.338) (0.31338799 0.1945 0.338))
// edges

14
(
(0 8)
(1 0)
(9 1)
(2 3)
(8 2)
(3 9)
(5 4)
(4 1)
(3 5)
(2 6)
(6 5)
(0 7)
(7 6)
(7 4)
)

// concaveStart mixedStart nonFeatureStart
8 8 8
// internalStart flatStart openStart multipleStart
14 14 14 14
// normals

18
(
(0 0 1)
(0 -1 0)
(-1 0 0)
(0 -0 1)
(-0 1 0)
(0.3420179 -0 0.93969344)
(1 -0 0)
(0 -1 0)
(0.3420179 0 0.93969344)
(0 1 -0)
(0 1 0)
(-0 0 -1)
(1 0 0)
(0 0 -1)
(-1 0 0)
(0 -1 0)
(0 0 -1)
(0 0 -1)
)

// normal volume types

18
(
0
0
0
0
0
0
0
0
0
0
0
0
0
0
0
0
0
0
)

// normalDirections

14
(
2(1 -1)
2(1 -1)
2(1 -1)
2(1 -1)
2(1 -1)
2(1 -1)
2(1 -1)
2(1 -1)
2(1 -1)
2(1 -1)
2(1 -1)
2(1 -1)
2(1 -1)
2(1 -1)
)

// edgeNormals

14
(
2(0 1)
2(0 2)
2(3 4)
2(5 6)
2(5 7)
2(8 9)
2(10 11)
2(10 2)
2(9 12)
2(6 7)
2(12 13)
2(1 14)
2(15 16)
2(17 14)
)

// featurePointNormals

8
(
3(0 1 2)
3(0 2 4)
3(5 6 7)
3(5 6 9)
3(10 11 2)
3(10 11 12)
3(6 7 13)
3(1 14 16)
)

// featurePointEdges

8
(
3(0 11 1)
3(2 7 1)
3(3 9 4)
3(5 8 3)
3(6 13 7)
3(8 10 6)
3(10 12 9)
3(12 13 11)
)

// regionEdges
0()

// ************************************************************************* //
