/*--------------------------------*- C++ -*----------------------------------*\
| =========                 |                                                 |
| \\      /  F ield         | OpenFOAM: The Open Source CFD Toolbox           |
|  \\    /   O peration     | Version:  7                                     |
|   \\  /    A nd           | Web:      www.OpenFOAM.com                      |
|    \\/     M anipulation  |                                                 |
\*---------------------------------------------------------------------------*/
FoamFile
{
    version     2.0;
    format      ascii;
    class       extendedFeatureEdgeMesh;
    object      ab2.extendedFeatureEdgeMesh;
}
// * * * * * * * * * * * * * * * * * * * * * * * * * * * * * * * * * * * * * //

// points

176
(
(-0.42199999 -0.1945 0.338)
(-0.42199999 -0.1945 0.050000001)
(-0.42199999 0.1945 0.338)
(-0.42199999 0.1945 0.050000001)
(-0.42418101 0.19447599 0.050023802)
(-0.42418101 0.19447599 0.33797601)
(-0.42636201 0.194405 0.050095201)
(-0.42636201 0.194405 0.33790499)
(-0.42853999 0.194286 0.050214101)
(-0.42853999 0.194286 0.33778599)
(-0.43071601 0.19411901 0.050380498)
(-0.43071601 0.19411901 0.33761901)
(-0.43288699 0.19390599 0.050594401)
(-0.43288699 0.19390599 0.33740601)
(-0.43505299 0.193644 0.050855499)
(-0.43505299 0.193644 0.33714399)
(-0.43721199 0.193336 0.0511638)
(-0.43721199 0.193336 0.33683601)
(-0.439365 0.192981 0.0515192)
(-0.439365 0.192981 0.336481)
(-0.44150901 0.192579 0.051921502)
(-0.44150901 0.192579 0.336079)
(-0.44364399 0.19213 0.052370399)
(-0.44364399 0.19213 0.33563)
(-0.44576901 0.191634 0.0528658)
(-0.44576901 0.191634 0.335134)
(-0.447882 0.191093 0.053407401)
(-0.447882 0.191093 0.334593)
(-0.449983 0.190505 0.334005)
(-0.449983 0.190505 0.053994998)
(-0.45207101 0.189872 0.333372)
(-0.45207101 0.189872 0.054628301)
(-0.454144 0.189193 0.33269301)
(-0.454144 0.189193 0.055307001)
(-0.456202 0.18846899 0.33196899)
(-0.456202 0.18846899 0.056030702)
(-0.458244 0.187701 0.056799199)
(-0.458244 0.187701 0.33120099)
(-0.46026799 0.18688799 0.057611998)
(-0.46026799 0.18688799 0.33038801)
(-0.462275 0.186031 0.058468901)
(-0.462275 0.186031 0.32953101)
(-0.46426201 0.185131 0.059369199)
(-0.46426201 0.185131 0.32863101)
(-0.46622899 0.184187 0.0603127)
(-0.46622899 0.184187 0.327687)
(-0.46817499 0.183201 0.061298899)
(-0.46817499 0.183201 0.32670099)
(-0.470099 0.182173 0.32567301)
(-0.470099 0.182173 0.062327299)
(-0.472 0.18110301 0.32460299)
(-0.472 0.18110301 0.063397497)
(-0.47387701 0.17999101 0.32349101)
(-0.47387701 0.17999101 0.064508803)
(-0.47573 0.178839 0.322339)
(-0.47573 0.178839 0.065660901)
(-0.477557 0.17764699 0.066853002)
(-0.477557 0.17764699 0.32114699)
(-0.47935799 0.176415 0.068084799)
(-0.47935799 0.176415 0.319915)
(-0.48113099 0.175144 0.069355503)
(-0.48113099 0.175144 0.31864399)
(-0.482876 0.17383499 0.31733501)
(-0.482876 0.17383499 0.070664696)
(-0.48459199 0.172488 0.072011597)
(-0.48459199 0.172488 0.315988)
(-0.48627901 0.171104 0.31460401)
(-0.48627901 0.171104 0.073395602)
(-0.48955899 0.168228 0.076272301)
(-0.48955899 0.168228 0.311728)
(-0.49271101 0.16521101 0.079289302)
(-0.49271101 0.16521101 0.30871099)
(-0.49572799 0.16205899 0.082441002)
(-0.49572799 0.16205899 0.30555901)
(-0.498604 0.158779 0.085721202)
(-0.498604 0.158779 0.302279)
(-0.50133502 0.155376 0.089123897)
(-0.50133502 0.155376 0.29887599)
(-0.50391501 0.151858 0.092642397)
(-0.50391501 0.151858 0.295358)
(-0.50633901 0.14823 0.096270002)
(-0.50633901 0.14823 0.29172999)
(-0.50860298 0.1445 0.1)
(-0.50860298 0.1445 0.28799999)
(-0.510701 0.14067499 0.103825)
(-0.510701 0.14067499 0.28417501)
(-0.512631 0.13676199 0.107738)
(-0.512631 0.13676199 0.28026199)
(-0.51438802 0.13276801 0.111732)
(-0.51438802 0.13276801 0.27626801)
(-0.42418101 -0.19447599 0.050023802)
(-0.42418101 -0.19447599 0.33797601)
(-0.42636201 -0.194405 0.050095201)
(-0.42636201 -0.194405 0.33790499)
(-0.42853999 -0.194286 0.33778599)
(-0.42853999 -0.194286 0.050214101)
(-0.43071601 -0.19411901 0.33761901)
(-0.43071601 -0.19411901 0.050380498)
(-0.43288699 -0.19390599 0.33740601)
(-0.43288699 -0.19390599 0.050594401)
(-0.43505299 -0.193644 0.33714399)
(-0.43505299 -0.193644 0.050855499)
(-0.43721199 -0.193336 0.33683601)
(-0.43721199 -0.193336 0.0511638)
(-0.439365 -0.192981 0.336481)
(-0.439365 -0.192981 0.0515192)
(-0.44150901 -0.192579 0.051921502)
(-0.44150901 -0.192579 0.336079)
(-0.44364399 -0.19213 0.052370399)
(-0.44364399 -0.19213 0.33563)
(-0.44576901 -0.191634 0.335134)
(-0.44576901 -0.191634 0.0528658)
(-0.447882 -0.191093 0.334593)
(-0.447882 -0.191093 0.053407401)
(-0.449983 -0.190505 0.334005)
(-0.449983 -0.190505 0.053994998)
(-0.45207101 -0.189872 0.333372)
(-0.45207101 -0.189872 0.054628301)
(-0.454144 -0.189193 0.33269301)
(-0.454144 -0.189193 0.055307001)
(-0.456202 -0.18846899 0.33196899)
(-0.456202 -0.18846899 0.056030702)
(-0.458244 -0.187701 0.33120099)
(-0.458244 -0.187701 0.056799199)
(-0.46026799 -0.18688799 0.33038801)
(-0.46026799 -0.18688799 0.057611998)
(-0.462275 -0.186031 0.32953101)
(-0.462275 -0.186031 0.058468901)
(-0.46426201 -0.185131 0.32863101)
(-0.46426201 -0.185131 0.059369199)
(-0.46622899 -0.184187 0.327687)
(-0.46622899 -0.184187 0.0603127)
(-0.46817499 -0.183201 0.32670099)
(-0.46817499 -0.183201 0.061298899)
(-0.470099 -0.182173 0.062327299)
(-0.470099 -0.182173 0.32567301)
(-0.472 -0.18110301 0.063397497)
(-0.472 -0.18110301 0.32460299)
(-0.47387701 -0.17999101 0.32349101)
(-0.47387701 -0.17999101 0.064508803)
(-0.47573 -0.178839 0.322339)
(-0.47573 -0.178839 0.065660901)
(-0.477557 -0.17764699 0.066853002)
(-0.477557 -0.17764699 0.32114699)
(-0.47935799 -0.176415 0.068084799)
(-0.47935799 -0.176415 0.319915)
(-0.48113099 -0.175144 0.069355503)
(-0.48113099 -0.175144 0.31864399)
(-0.482876 -0.17383499 0.070664696)
(-0.482876 -0.17383499 0.31733501)
(-0.48459199 -0.172488 0.072011597)
(-0.48459199 -0.172488 0.315988)
(-0.48627901 -0.171104 0.073395602)
(-0.48627901 -0.171104 0.31460401)
(-0.48955899 -0.168228 0.311728)
(-0.48955899 -0.168228 0.076272301)
(-0.49271101 -0.16521101 0.30871099)
(-0.49271101 -0.16521101 0.079289302)
(-0.49572799 -0.16205899 0.30555901)
(-0.49572799 -0.16205899 0.082441002)
(-0.498604 -0.158779 0.302279)
(-0.498604 -0.158779 0.085721202)
(-0.50133502 -0.155376 0.29887599)
(-0.50133502 -0.155376 0.089123897)
(-0.50391501 -0.151858 0.295358)
(-0.50391501 -0.151858 0.092642397)
(-0.50633901 -0.14823 0.29172999)
(-0.50633901 -0.14823 0.096270002)
(-0.50860298 -0.1445 0.28799999)
(-0.50860298 -0.1445 0.1)
(-0.510701 -0.14067499 0.28417501)
(-0.510701 -0.14067499 0.103825)
(-0.512631 -0.13676199 0.28026199)
(-0.512631 -0.13676199 0.107738)
(-0.51438802 -0.13276801 0.27626801)
(-0.51438802 -0.13276801 0.111732)
)

// edges

176
(
(0 1)
(2 0)
(3 2)
(1 3)
(3 4)
(5 2)
(4 6)
(7 5)
(6 8)
(9 7)
(8 10)
(11 9)
(10 12)
(13 11)
(12 14)
(15 13)
(14 16)
(17 15)
(16 18)
(19 17)
(18 20)
(21 19)
(20 22)
(23 21)
(22 24)
(25 23)
(24 26)
(27 25)
(28 27)
(26 29)
(30 28)
(29 31)
(32 30)
(31 33)
(34 32)
(33 35)
(35 36)
(37 34)
(36 38)
(39 37)
(38 40)
(41 39)
(40 42)
(43 41)
(42 44)
(45 43)
(44 46)
(47 45)
(48 47)
(46 49)
(50 48)
(49 51)
(52 50)
(51 53)
(54 52)
(53 55)
(55 56)
(57 54)
(56 58)
(59 57)
(58 60)
(61 59)
(62 61)
(60 63)
(63 64)
(65 62)
(66 65)
(64 67)
(67 68)
(69 66)
(68 70)
(71 69)
(70 72)
(73 71)
(72 74)
(75 73)
(74 76)
(77 75)
(76 78)
(79 77)
(78 80)
(81 79)
(80 82)
(83 81)
(82 84)
(85 83)
(84 86)
(87 85)
(86 88)
(89 87)
(90 1)
(0 91)
(92 90)
(91 93)
(93 94)
(95 92)
(94 96)
(97 95)
(96 98)
(99 97)
(98 100)
(101 99)
(100 102)
(103 101)
(102 104)
(105 103)
(106 105)
(104 107)
(108 106)
(107 109)
(109 110)
(111 108)
(110 112)
(113 111)
(112 114)
(115 113)
(114 116)
(117 115)
(116 118)
(119 117)
(118 120)
(121 119)
(120 122)
(123 121)
(122 124)
(125 123)
(124 126)
(127 125)
(126 128)
(129 127)
(128 130)
(131 129)
(130 132)
(133 131)
(134 133)
(132 135)
(136 134)
(135 137)
(137 138)
(139 136)
(138 140)
(141 139)
(142 141)
(140 143)
(144 142)
(143 145)
(146 144)
(145 147)
(148 146)
(147 149)
(150 148)
(149 151)
(152 150)
(151 153)
(153 154)
(155 152)
(154 156)
(157 155)
(156 158)
(159 157)
(158 160)
(161 159)
(160 162)
(163 161)
(162 164)
(165 163)
(164 166)
(167 165)
(166 168)
(169 167)
(168 170)
(171 169)
(170 172)
(173 171)
(172 174)
(175 173)
)

// concaveStart mixedStart nonFeatureStart
4 4 4
// internalStart flatStart openStart multipleStart
176 176 176 176
// normals

346
(
(1 -0 0)
(-0.011005988 -0.99993943 0)
(-0.010999157 0 0.99993951)
(1 0 0)
(-0.011005988 0.99993943 0)
(-0.010912062 -0 -0.99994046)
(-0.011005988 0.99993943 0)
(-0.010999157 0 0.99993951)
(-0.032531759 0.9994707 0)
(-0.032719347 -0 -0.99946458)
(-0.032531759 0.9994707 0)
(-0.032545402 0 0.99947026)
(-0.054556631 0.99851068 0)
(-0.054510655 0 -0.99851319)
(-0.054556631 0.99851068 0)
(-0.054556631 0 0.99851068)
(-0.076519496 0.99706809 0)
(-0.076246277 0 -0.99708902)
(-0.076519496 0.99706809 0)
(-0.076512708 0 0.99706861)
(-0.097649033 0.99522091 0)
(-0.098053269 0 -0.99518117)
(-0.097649033 0.99522091 0)
(-0.097642267 0 0.99522158)
(-0.1200813 0.99276406 0)
(-0.11967739 0 -0.99281283)
(-0.1200813 0.99276406 0)
(-0.12009476 0 0.99276243)
(-0.14123195 0.98997653 0)
(-0.1413642 0 -0.98995766)
(-0.14123195 0.98997653 0)
(-0.14121856 0 0.98997844)
(-0.1626845 0.98667814 0)
(-0.16286732 0 -0.98664798)
(-0.1626845 0.98667814 0)
(-0.16269115 0 0.98667704)
(-0.18428936 0.98287203 0)
(-0.18442134 0 -0.98284728)
(-0.18428936 0.98287203 0)
(-0.18428936 0 0.98287203)
(-0.20580532 0.97859295 0)
(-0.20575953 0 -0.97860258)
(-0.20580532 0.97859295 0)
(-0.20580532 0 0.97859295)
(-0.22729956 0.97382489 0)
(-0.22703888 0 -0.9738857)
(-0.22729956 0.97382489 0)
(-0.22729956 0 0.97382489)
(-0.24803575 0.96875088 0)
(-0.24829379 0 -0.96868478)
(-0.24803575 0.96875088 0)
(-0.24803575 0 0.96875088)
(-0.26951035 0.96299749 0)
(-0.26951035 0 0.96299749)
(-0.26951035 0.96299749 0)
(-0.26933932 -0 -0.96304534)
(-0.29012112 0.95698993 0)
(-0.29012112 0 0.95698993)
(-0.29012112 0.95698993 0)
(-0.29024778 -0 -0.95695153)
(-0.31127431 0.95032011 0)
(-0.31126814 0 0.95032213)
(-0.31127431 0.95032011 0)
(-0.31114937 -0 -0.95036102)
(-0.33186209 0.94332791 0)
(-0.33186817 0 0.94332578)
(-0.33186209 0.94332791 0)
(-0.331739 -0 -0.94337121)
(-0.3520245 0.93599079 0)
(-0.35222792 -0 -0.93591425)
(-0.3520245 0.93599079 0)
(-0.35203048 0 0.93598854)
(-0.37273778 0.92793672 0)
(-0.37265542 -0 -0.92796979)
(-0.37273778 0.92793672 0)
(-0.37272601 0 0.92794144)
(-0.39269931 0.91966693 0)
(-0.39266321 0 -0.91968234)
(-0.39269931 0.91966693 0)
(-0.39269931 0 0.91966693)
(-0.41259205 0.91091591 0)
(-0.41270541 0 -0.91086456)
(-0.41259205 0.91091591 0)
(-0.41259205 0 0.91091591)
(-0.43267578 0.90154959 0)
(-0.4324884 0 -0.9016395)
(-0.43267578 0.90154959 0)
(-0.43268133 0 0.90154693)
(-0.45197226 0.89203199 0)
(-0.45204699 0 -0.89199413)
(-0.45197226 0.89203199 0)
(-0.45197769 0 0.89202924)
(-0.47125323 0.88199795 0)
(-0.4712426 0 0.88200363)
(-0.47125323 0.88199795 0)
(-0.47139536 0 -0.881922)
(-0.49049797 0.87144233 0)
(-0.49050835 0 0.87143649)
(-0.49049797 0.87144233 0)
(-0.49056929 0 -0.87140219)
(-0.5096996 0.86035244 0)
(-0.50969455 0 0.86035543)
(-0.5096996 0.86035244 0)
(-0.50946445 0 -0.8604917)
(-0.52798391 0.84925437 0)
(-0.52798391 0 0.84925437)
(-0.52798391 0.84925437 0)
(-0.52801347 0 -0.849236)
(-0.54642238 0.83750975 0)
(-0.54645352 -0 -0.83748943)
(-0.54642238 0.83750975 0)
(-0.54642238 0 0.83750975)
(-0.56460459 0.82536153 0)
(-0.56454179 -0 -0.82540449)
(-0.56460459 0.82536153 0)
(-0.56460459 0 0.82536153)
(-0.58262333 0.8127423 0)
(-0.58253534 0 -0.81280538)
(-0.58262333 0.8127423 0)
(-0.58262785 0 0.81273907)
(-0.60007213 0.7999459 0)
(-0.60006339 0 0.79995245)
(-0.60007213 0.7999459 0)
(-0.60012677 0 -0.79990491)
(-0.61745707 0.78660458 0)
(-0.61743171 0 -0.78662449)
(-0.61745707 0.78660458 0)
(-0.6174613 0 0.78660126)
(-0.63425728 0.77312205 0)
(-0.63425319 0 0.7731254)
(-0.63425728 0.77312205 0)
(-0.63425728 0 -0.77312205)
(-0.65928489 0.75189323 0)
(-0.65937564 -0 -0.75181365)
(-0.65928489 0.75189323 0)
(-0.65928682 0 0.75189154)
(-0.69146492 0.72241003 0)
(-0.69146582 -0 -0.72240918)
(-0.69146492 0.72241003 0)
(-0.69146671 0 0.72240833)
(-0.72241174 0.69146314 0)
(-0.72237745 -0 -0.69149897)
(-0.72241174 0.69146314 0)
(-0.72240847 0 0.69146655)
(-0.75189302 0.65928513 0)
(-0.75191307 -0 -0.65926227)
(-0.75189302 0.65928513 0)
(-0.75189451 0 0.65928344)
(-0.779903 0.62590041 0)
(-0.77987624 -0 -0.62593375)
(-0.779903 0.62590041 0)
(-0.77990433 0 0.62589874)
(-0.80639186 0.59138158 0)
(-0.80643187 -0 -0.59132702)
(-0.80639186 0.59138158 0)
(-0.80639066 0 0.59138321)
(-0.83148558 0.55554634 0)
(-0.83145764 -0 -0.55558814)
(-0.83148558 0.55554634 0)
(-0.83148663 0 0.55554476)
(-0.85485655 0.51886442 0)
(-0.85485655 -0 -0.51886442)
(-0.85485655 0.51886442 0)
(-0.85485655 0 0.51886442)
(-0.87677004 0.48090986 0)
(-0.87676965 -0 -0.48091058)
(-0.87677004 0.48090986 0)
(-0.87676846 0 0.48091274)
(-0.89684362 0.44234773 0)
(-0.89684362 -0 -0.44234773)
(-0.89684362 0.44234773 0)
(-0.89684429 0 0.44234637)
(-0.91534283 0.40267544 0)
(-0.9153431 -0 -0.40267481)
(-0.91534283 0.40267544 0)
(-0.91534283 0 0.40267544)
(-0.010912062 0 -0.99994046)
(-0.011005988 -0.99993943 0)
(-0.032531759 -0.9994707 0)
(-0.032719347 0 -0.99946458)
(-0.032531759 -0.9994707 0)
(-0.032545402 0 0.99947026)
(-0.054556631 -0.99851068 -0)
(-0.054556631 0 0.99851068)
(-0.054556631 -0.99851068 0)
(-0.054510655 -0 -0.99851319)
(-0.076519496 -0.99706809 -0)
(-0.076512708 0 0.99706861)
(-0.076519496 -0.99706809 0)
(-0.076246277 0 -0.99708902)
(-0.097649033 -0.99522091 -0)
(-0.097642267 0 0.99522158)
(-0.097649033 -0.99522091 0)
(-0.098053269 0 -0.99518117)
(-0.1200813 -0.99276406 -0)
(-0.12009476 0 0.99276243)
(-0.1200813 -0.99276406 0)
(-0.11967739 0 -0.99281283)
(-0.14123195 -0.98997653 -0)
(-0.14121856 0 0.98997844)
(-0.14123195 -0.98997653 0)
(-0.1413642 0 -0.98995766)
(-0.1626845 -0.98667814 -0)
(-0.16269115 0 0.98667704)
(-0.1626845 -0.98667814 0)
(-0.16286732 0 -0.98664798)
(-0.18428936 -0.98287203 0)
(-0.18442134 0 -0.98284728)
(-0.18428936 -0.98287203 0)
(-0.18428936 0 0.98287203)
(-0.20580532 -0.97859295 0)
(-0.20575953 0 -0.97860258)
(-0.20580532 -0.97859295 0)
(-0.20580532 0 0.97859295)
(-0.22729956 -0.97382489 -0)
(-0.22729956 0 0.97382489)
(-0.22729956 -0.97382489 0)
(-0.22703888 0 -0.9738857)
(-0.24803575 -0.96875088 -0)
(-0.24803575 0 0.96875088)
(-0.24803575 -0.96875088 0)
(-0.24829379 0 -0.96868478)
(-0.26951035 -0.96299749 -0)
(-0.26951035 0 0.96299749)
(-0.26951035 -0.96299749 0)
(-0.26933932 0 -0.96304534)
(-0.29012112 -0.95698993 -0)
(-0.29012112 0 0.95698993)
(-0.29012112 -0.95698993 0)
(-0.29024778 0 -0.95695153)
(-0.31127431 -0.95032011 -0)
(-0.31126814 0 0.95032213)
(-0.31127431 -0.95032011 0)
(-0.31114937 0 -0.95036102)
(-0.33186209 -0.94332791 -0)
(-0.33186817 0 0.94332578)
(-0.33186209 -0.94332791 0)
(-0.331739 0 -0.94337121)
(-0.3520245 -0.93599079 -0)
(-0.35203048 0 0.93598854)
(-0.3520245 -0.93599079 0)
(-0.35222792 0 -0.93591425)
(-0.37273778 -0.92793672 -0)
(-0.37272601 0 0.92794144)
(-0.37273778 -0.92793672 0)
(-0.37265542 0 -0.92796979)
(-0.39269931 -0.91966693 -0)
(-0.39269931 0 0.91966693)
(-0.39269931 -0.91966693 0)
(-0.39266321 0 -0.91968234)
(-0.41259205 -0.91091591 -0)
(-0.41259205 0 0.91091591)
(-0.41259205 -0.91091591 0)
(-0.41270541 0 -0.91086456)
(-0.43267578 -0.90154959 -0)
(-0.43268133 0 0.90154693)
(-0.43267578 -0.90154959 0)
(-0.4324884 0 -0.9016395)
(-0.45197226 -0.89203199 -0)
(-0.45197769 0 0.89202924)
(-0.45197226 -0.89203199 0)
(-0.45204699 0 -0.89199413)
(-0.47125323 -0.88199795 0)
(-0.47139536 0 -0.881922)
(-0.47125323 -0.88199795 0)
(-0.4712426 0 0.88200363)
(-0.49049797 -0.87144233 0)
(-0.49056929 0 -0.87140219)
(-0.49049797 -0.87144233 0)
(-0.49050835 0 0.87143649)
(-0.5096996 -0.86035244 -0)
(-0.50969455 0 0.86035543)
(-0.5096996 -0.86035244 0)
(-0.50946445 0 -0.8604917)
(-0.52798391 -0.84925437 -0)
(-0.52798391 0 0.84925437)
(-0.52798391 -0.84925437 0)
(-0.52801347 0 -0.849236)
(-0.54642238 -0.83750975 0)
(-0.54645352 0 -0.83748943)
(-0.54642238 -0.83750975 0)
(-0.54642238 0 0.83750975)
(-0.56460459 -0.82536153 0)
(-0.56454179 0 -0.82540449)
(-0.56460459 -0.82536153 0)
(-0.56460459 0 0.82536153)
(-0.58262333 -0.8127423 0)
(-0.58253534 0 -0.81280538)
(-0.58262333 -0.8127423 0)
(-0.58262785 0 0.81273907)
(-0.60007213 -0.7999459 0)
(-0.60012677 0 -0.79990491)
(-0.60007213 -0.7999459 0)
(-0.60006339 0 0.79995245)
(-0.61745707 -0.78660458 0)
(-0.61743171 0 -0.78662449)
(-0.61745707 -0.78660458 0)
(-0.6174613 0 0.78660126)
(-0.63425728 -0.77312205 0)
(-0.63425728 0 -0.77312205)
(-0.63425728 -0.77312205 0)
(-0.63425319 0 0.7731254)
(-0.65928489 -0.75189323 -0)
(-0.65928682 0 0.75189154)
(-0.65928489 -0.75189323 0)
(-0.65937564 0 -0.75181365)
(-0.69146492 -0.72241003 -0)
(-0.69146671 0 0.72240833)
(-0.69146492 -0.72241003 0)
(-0.69146582 0 -0.72240918)
(-0.72241174 -0.69146314 -0)
(-0.72240847 0 0.69146655)
(-0.72241174 -0.69146314 0)
(-0.72237745 0 -0.69149897)
(-0.75189302 -0.65928513 -0)
(-0.75189451 0 0.65928344)
(-0.75189302 -0.65928513 0)
(-0.75191307 0 -0.65926227)
(-0.779903 -0.62590041 -0)
(-0.77990433 0 0.62589874)
(-0.779903 -0.62590041 0)
(-0.77987624 0 -0.62593375)
(-0.80639186 -0.59138158 -0)
(-0.80639066 0 0.59138321)
(-0.80639186 -0.59138158 0)
(-0.80643187 0 -0.59132702)
(-0.83148558 -0.55554634 -0)
(-0.83148663 0 0.55554476)
(-0.83148558 -0.55554634 0)
(-0.83145764 0 -0.55558814)
(-0.85485655 -0.51886442 -0)
(-0.85485655 0 0.51886442)
(-0.85485655 -0.51886442 0)
(-0.85485655 0 -0.51886442)
(-0.87677004 -0.48090986 -0)
(-0.87676846 0 0.48091274)
(-0.87677004 -0.48090986 0)
(-0.87676965 0 -0.48091058)
(-0.89684362 -0.44234773 -0)
(-0.89684429 0 0.44234637)
(-0.89684362 -0.44234773 0)
(-0.89684362 0 -0.44234773)
(-0.91534283 -0.40267544 -0)
(-0.91534283 0 0.40267544)
(-0.91534283 -0.40267544 0)
(-0.9153431 0 -0.40267481)
)

// normal volume types

346
(
0
0
0
0
0
0
0
0
0
0
0
0
0
0
0
0
0
0
0
0
0
0
0
0
0
0
0
0
0
0
0
0
0
0
0
0
0
0
0
0
0
0
0
0
0
0
0
0
0
0
0
0
0
0
0
0
0
0
0
0
0
0
0
0
0
0
0
0
0
0
0
0
0
0
0
0
0
0
0
0
0
0
0
0
0
0
0
0
0
0
0
0
0
0
0
0
0
0
0
0
0
0
0
0
0
0
0
0
0
0
0
0
0
0
0
0
0
0
0
0
0
0
0
0
0
0
0
0
0
0
0
0
0
0
0
0
0
0
0
0
0
0
0
0
0
0
0
0
0
0
0
0
0
0
0
0
0
0
0
0
0
0
0
0
0
0
0
0
0
0
0
0
0
0
0
0
0
0
0
0
0
0
0
0
0
0
0
0
0
0
0
0
0
0
0
0
0
0
0
0
0
0
0
0
0
0
0
0
0
0
0
0
0
0
0
0
0
0
0
0
0
0
0
0
0
0
0
0
0
0
0
0
0
0
0
0
0
0
0
0
0
0
0
0
0
0
0
0
0
0
0
0
0
0
0
0
0
0
0
0
0
0
0
0
0
0
0
0
0
0
0
0
0
0
0
0
0
0
0
0
0
0
0
0
0
0
0
0
0
0
0
0
0
0
0
0
0
0
0
0
0
0
0
0
0
0
0
0
0
0
0
0
0
0
0
0
0
0
0
0
0
0
0
0
0
0
0
0
0
0
0
0
0
0
0
0
0
0
0
0
0
0
0
0
0
0
)

// normalDirections

176
(
2(1 -1)
2(1 -1)
2(1 -1)
2(1 -1)
2(1 -1)
2(1 -1)
2(1 -1)
2(1 -1)
2(1 -1)
2(1 -1)
2(1 -1)
2(1 -1)
2(1 -1)
2(1 -1)
2(1 -1)
2(1 -1)
2(1 -1)
2(1 -1)
2(1 -1)
2(1 -1)
2(1 -1)
2(1 -1)
2(1 -1)
2(1 -1)
2(1 -1)
2(1 -1)
2(1 -1)
2(1 -1)
2(1 -1)
2(1 -1)
2(1 -1)
2(1 -1)
2(1 -1)
2(1 -1)
2(1 -1)
2(1 -1)
2(1 -1)
2(1 -1)
2(1 -1)
2(1 -1)
2(1 -1)
2(1 -1)
2(1 -1)
2(1 -1)
2(1 -1)
2(1 -1)
2(1 -1)
2(1 -1)
2(1 -1)
2(1 -1)
2(1 -1)
2(1 -1)
2(1 -1)
2(1 -1)
2(1 -1)
2(1 -1)
2(1 -1)
2(1 -1)
2(1 -1)
2(1 -1)
2(1 -1)
2(1 -1)
2(1 -1)
2(1 -1)
2(1 -1)
2(1 -1)
2(1 -1)
2(1 -1)
2(1 -1)
2(1 -1)
2(1 -1)
2(1 -1)
2(1 -1)
2(1 -1)
2(1 -1)
2(1 -1)
2(1 -1)
2(1 -1)
2(1 -1)
2(1 -1)
2(1 -1)
2(1 -1)
2(1 -1)
2(1 -1)
2(1 -1)
2(1 -1)
2(1 -1)
2(1 -1)
2(1 -1)
2(1 -1)
2(1 -1)
2(1 -1)
2(1 -1)
2(1 -1)
2(1 -1)
2(1 -1)
2(1 -1)
2(1 -1)
2(1 -1)
2(1 -1)
2(1 -1)
2(1 -1)
2(1 -1)
2(1 -1)
2(1 -1)
2(1 -1)
2(1 -1)
2(1 -1)
2(1 -1)
2(1 -1)
2(1 -1)
2(1 -1)
2(1 -1)
2(1 -1)
2(1 -1)
2(1 -1)
2(1 -1)
2(1 -1)
2(1 -1)
2(1 -1)
2(1 -1)
2(1 -1)
2(1 -1)
2(1 -1)
2(1 -1)
2(1 -1)
2(1 -1)
2(1 -1)
2(1 -1)
2(1 -1)
2(1 -1)
2(1 -1)
2(1 -1)
2(1 -1)
2(1 -1)
2(1 -1)
2(1 -1)
2(1 -1)
2(1 -1)
2(1 -1)
2(1 -1)
2(1 -1)
2(1 -1)
2(1 -1)
2(1 -1)
2(1 -1)
2(1 -1)
2(1 -1)
2(1 -1)
2(1 -1)
2(1 -1)
2(1 -1)
2(1 -1)
2(1 -1)
2(1 -1)
2(1 -1)
2(1 -1)
2(1 -1)
2(1 -1)
2(1 -1)
2(1 -1)
2(1 -1)
2(1 -1)
2(1 -1)
2(1 -1)
2(1 -1)
2(1 -1)
2(1 -1)
2(1 -1)
2(1 -1)
2(1 -1)
2(1 -1)
2(1 -1)
2(1 -1)
2(1 -1)
2(1 -1)
)

// edgeNormals

176
(
2(0 1)
2(0 2)
2(3 4)
2(3 5)
2(4 5)
2(6 7)
2(8 9)
2(10 11)
2(12 13)
2(14 15)
2(16 17)
2(18 19)
2(20 21)
2(22 23)
2(24 25)
2(26 27)
2(28 29)
2(30 31)
2(32 33)
2(34 35)
2(36 37)
2(38 39)
2(40 41)
2(42 43)
2(44 45)
2(46 47)
2(48 49)
2(50 51)
2(52 53)
2(54 55)
2(56 57)
2(58 59)
2(60 61)
2(62 63)
2(64 65)
2(66 67)
2(68 69)
2(70 71)
2(72 73)
2(74 75)
2(76 77)
2(78 79)
2(80 81)
2(82 83)
2(84 85)
2(86 87)
2(88 89)
2(90 91)
2(92 93)
2(94 95)
2(96 97)
2(98 99)
2(100 101)
2(102 103)
2(104 105)
2(106 107)
2(108 109)
2(110 111)
2(112 113)
2(114 115)
2(116 117)
2(118 119)
2(120 121)
2(122 123)
2(124 125)
2(126 127)
2(128 129)
2(130 131)
2(132 133)
2(134 135)
2(136 137)
2(138 139)
2(140 141)
2(142 143)
2(144 145)
2(146 147)
2(148 149)
2(150 151)
2(152 153)
2(154 155)
2(156 157)
2(158 159)
2(160 161)
2(162 163)
2(164 165)
2(166 167)
2(168 169)
2(170 171)
2(172 173)
2(174 175)
2(1 176)
2(177 2)
2(178 179)
2(180 181)
2(182 183)
2(184 185)
2(186 187)
2(188 189)
2(190 191)
2(192 193)
2(194 195)
2(196 197)
2(198 199)
2(200 201)
2(202 203)
2(204 205)
2(206 207)
2(208 209)
2(210 211)
2(212 213)
2(214 215)
2(216 217)
2(218 219)
2(220 221)
2(222 223)
2(224 225)
2(226 227)
2(228 229)
2(230 231)
2(232 233)
2(234 235)
2(236 237)
2(238 239)
2(240 241)
2(242 243)
2(244 245)
2(246 247)
2(248 249)
2(250 251)
2(252 253)
2(254 255)
2(256 257)
2(258 259)
2(260 261)
2(262 263)
2(264 265)
2(266 267)
2(268 269)
2(270 271)
2(272 273)
2(274 275)
2(276 277)
2(278 279)
2(280 281)
2(282 283)
2(284 285)
2(286 287)
2(288 289)
2(290 291)
2(292 293)
2(294 295)
2(296 297)
2(298 299)
2(300 301)
2(302 303)
2(304 305)
2(306 307)
2(308 309)
2(310 311)
2(312 313)
2(314 315)
2(316 317)
2(318 319)
2(320 321)
2(322 323)
2(324 325)
2(326 327)
2(328 329)
2(330 331)
2(332 333)
2(334 335)
2(336 337)
2(338 339)
2(340 341)
2(342 343)
2(344 345)
)

// featurePointNormals

4
(
3(0 1 2)
3(0 1 5)
3(0 2 4)
3(3 4 5)
)

// featurePointEdges

4
(
3(0 91 1)
3(3 90 0)
3(2 5 1)
3(2 4 3)
)

// regionEdges
0()

// ************************************************************************* //
