/*--------------------------------*- C++ -*----------------------------------*\
| =========                 |                                                 |
| \\      /  F ield         | OpenFOAM: The Open Source CFD Toolbox           |
|  \\    /   O peration     | Version:  7                                     |
|   \\  /    A nd           | Web:      www.OpenFOAM.com                      |
|    \\/     M anipulation  |                                                 |
\*---------------------------------------------------------------------------*/
FoamFile
{
    version     2.0;
    format      ascii;
    class       extendedFeatureEdgeMesh;
    object      ahmed_body.extendedFeatureEdgeMesh;
}
// * * * * * * * * * * * * * * * * * * * * * * * * * * * * * * * * * * * * * //

// points

1338
(
(0.52200001 0.1945 0.050000001)
(0.52200001 -0.1945 0.050000001)
(0.52200001 0.1945 0.262072)
(0.52200001 -0.1945 0.262072)
(0.16494299 0.16480701 0)
(0.164986 0.16415399 0)
(0.16500001 0.1635 0)
(0.164986 0.162846 0)
(0.164644 0.166747 0)
(0.164772 0.166105 0)
(0.16487201 0.16545799 0)
(0.164095 0.16863 0)
(0.164306 0.16801099 0)
(0.164489 0.167382 0)
(0.163305 0.170426 0)
(0.16359501 0.16983899 0)
(0.163858 0.16924 0)
(0.162287 0.172104 0)
(0.162651 0.17155901 0)
(0.16299 0.171 0)
(0.16105901 0.17363399 0)
(0.16149101 0.173142 0)
(0.1619 0.172631 0)
(0.159642 0.174991 0)
(0.160134 0.174559 0)
(0.160607 0.174107 0)
(0.158059 0.17615101 0)
(0.158604 0.175787 0)
(0.15913101 0.1754 0)
(0.156339 0.177095 0)
(0.15692601 0.176805 0)
(0.1575 0.17648999 0)
(0.154511 0.177806 0)
(0.15513 0.177595 0)
(0.15573999 0.177358 0)
(0.152605 0.17827199 0)
(0.153247 0.17814399 0)
(0.153882 0.17798901 0)
(0.150654 0.178486 0)
(0.151307 0.178443 0)
(0.151958 0.178372 0)
(0.148693 0.178443 0)
(0.14934599 0.178486 0)
(0.15000001 0.1785 0)
(0.146753 0.17814399 0)
(0.147395 0.17827199 0)
(0.14804199 0.178372 0)
(0.14487 0.177595 0)
(0.14548901 0.177806 0)
(0.146118 0.17798901 0)
(0.14307401 0.176805 0)
(0.14366101 0.177095 0)
(0.14426 0.177358 0)
(0.141396 0.175787 0)
(0.141941 0.17615101 0)
(0.1425 0.17648999 0)
(0.13986599 0.174559 0)
(0.140358 0.174991 0)
(0.14086901 0.1754 0)
(0.13850901 0.173142 0)
(0.138941 0.17363399 0)
(0.139393 0.174107 0)
(0.13734899 0.17155901 0)
(0.137713 0.172104 0)
(0.1381 0.172631 0)
(0.13640501 0.16983899 0)
(0.136695 0.170426 0)
(0.13700999 0.171 0)
(0.135694 0.16801099 0)
(0.135905 0.16863 0)
(0.136142 0.16924 0)
(0.13522799 0.166105 0)
(0.13535599 0.166747 0)
(0.135511 0.167382 0)
(0.135014 0.16415399 0)
(0.135057 0.16480701 0)
(0.13512801 0.16545799 0)
(0.135057 0.162193 0)
(0.135014 0.162846 0)
(0.13500001 0.1635 0)
(0.13535599 0.160253 0)
(0.13522799 0.160895 0)
(0.13512801 0.161542 0)
(0.135905 0.15837 0)
(0.135694 0.158989 0)
(0.135511 0.15961801 0)
(0.136695 0.156574 0)
(0.13640501 0.157161 0)
(0.136142 0.15775999 0)
(0.137713 0.15489601 0)
(0.13734899 0.155441 0)
(0.13700999 0.156 0)
(0.138941 0.153366 0)
(0.13850901 0.15385801 0)
(0.1381 0.154369 0)
(0.140358 0.152009 0)
(0.13986599 0.15244099 0)
(0.139393 0.15289301 0)
(0.141941 0.150849 0)
(0.141396 0.15121301 0)
(0.14086901 0.1516 0)
(0.14366101 0.149905 0)
(0.14307401 0.150195 0)
(0.1425 0.15051 0)
(0.14548901 0.149194 0)
(0.14487 0.149405 0)
(0.14426 0.14964201 0)
(0.147395 0.148728 0)
(0.146753 0.148856 0)
(0.146118 0.149011 0)
(0.14934599 0.148514 0)
(0.148693 0.14855701 0)
(0.14804199 0.148628 0)
(0.151307 0.14855701 0)
(0.150654 0.148514 0)
(0.15000001 0.1485 0)
(0.153247 0.148856 0)
(0.152605 0.148728 0)
(0.151958 0.148628 0)
(0.15513 0.149405 0)
(0.154511 0.149194 0)
(0.153882 0.149011 0)
(0.15692601 0.150195 0)
(0.156339 0.149905 0)
(0.15573999 0.14964201 0)
(0.158604 0.15121301 0)
(0.158059 0.150849 0)
(0.1575 0.15051 0)
(0.160134 0.15244099 0)
(0.159642 0.152009 0)
(0.15913101 0.1516 0)
(0.16149101 0.15385801 0)
(0.16105901 0.153366 0)
(0.160607 0.15289301 0)
(0.162651 0.155441 0)
(0.162287 0.15489601 0)
(0.1619 0.154369 0)
(0.16359501 0.157161 0)
(0.163305 0.156574 0)
(0.16299 0.156 0)
(0.164306 0.158989 0)
(0.164095 0.15837 0)
(0.163858 0.15775999 0)
(0.164772 0.160895 0)
(0.164644 0.160253 0)
(0.164489 0.15961801 0)
(0.16494299 0.162193 0)
(0.16487201 0.161542 0)
(-0.306021 0.16271301 0)
(-0.30605701 0.162193 0)
(-0.306014 0.16415399 0)
(-0.30599999 0.1635 0)
(-0.306014 0.162846 0)
(-0.30622801 0.166105 0)
(-0.306128 0.16545799 0)
(-0.30605701 0.16480701 0)
(-0.306694 0.16801099 0)
(-0.30651101 0.167382 0)
(-0.30635601 0.166747 0)
(-0.30740499 0.16983899 0)
(-0.30714199 0.16924 0)
(-0.306905 0.16863 0)
(-0.30834901 0.17155901 0)
(-0.30801001 0.171 0)
(-0.307695 0.170426 0)
(-0.30950901 0.173142 0)
(-0.3091 0.172631 0)
(-0.30871299 0.172104 0)
(-0.310866 0.174559 0)
(-0.31039301 0.174107 0)
(-0.30994099 0.17363399 0)
(-0.31239599 0.175787 0)
(-0.311869 0.1754 0)
(-0.311358 0.174991 0)
(-0.31407401 0.176805 0)
(-0.31349999 0.17648999 0)
(-0.31294101 0.17615101 0)
(-0.31586999 0.177595 0)
(-0.31525999 0.177358 0)
(-0.314661 0.177095 0)
(-0.31775299 0.17814399 0)
(-0.31711799 0.17798901 0)
(-0.31648901 0.177806 0)
(-0.319693 0.178443 0)
(-0.319042 0.178372 0)
(-0.31839499 0.17827199 0)
(-0.32165399 0.178486 0)
(-0.32100001 0.1785 0)
(-0.320346 0.178486 0)
(-0.323605 0.17827199 0)
(-0.32295799 0.178372 0)
(-0.32230699 0.178443 0)
(-0.32551101 0.177806 0)
(-0.324882 0.17798901 0)
(-0.324247 0.17814399 0)
(-0.32733899 0.177095 0)
(-0.32674 0.177358 0)
(-0.32613 0.177595 0)
(-0.329059 0.17615101 0)
(-0.3285 0.17648999 0)
(-0.32792601 0.176805 0)
(-0.33064201 0.174991 0)
(-0.33013099 0.1754 0)
(-0.329604 0.175787 0)
(-0.332059 0.17363399 0)
(-0.33160701 0.174107 0)
(-0.33113399 0.174559 0)
(-0.333287 0.172104 0)
(-0.33289999 0.172631 0)
(-0.33249101 0.173142 0)
(-0.33430499 0.170426 0)
(-0.33399001 0.171 0)
(-0.33365101 0.17155901 0)
(-0.33509499 0.16863 0)
(-0.334858 0.16924 0)
(-0.33459499 0.16983899 0)
(-0.33564401 0.166747 0)
(-0.335489 0.167382 0)
(-0.33530599 0.16801099 0)
(-0.33594301 0.16480701 0)
(-0.33587199 0.16545799 0)
(-0.33577201 0.166105 0)
(-0.33598599 0.162846 0)
(-0.336 0.1635 0)
(-0.33598599 0.16415399 0)
(-0.33577201 0.160895 0)
(-0.33587199 0.161542 0)
(-0.33594301 0.162193 0)
(-0.33530599 0.158989 0)
(-0.335489 0.15961801 0)
(-0.33564401 0.160253 0)
(-0.33459499 0.157161 0)
(-0.334858 0.15775999 0)
(-0.33509499 0.15837 0)
(-0.33365101 0.155441 0)
(-0.33399001 0.156 0)
(-0.33430499 0.156574 0)
(-0.33249101 0.15385801 0)
(-0.33289999 0.154369 0)
(-0.333287 0.15489601 0)
(-0.33113399 0.15244099 0)
(-0.33160701 0.15289301 0)
(-0.332059 0.153366 0)
(-0.329604 0.15121301 0)
(-0.33013099 0.1516 0)
(-0.33064201 0.152009 0)
(-0.32792601 0.150195 0)
(-0.3285 0.15051 0)
(-0.329059 0.150849 0)
(-0.32613 0.149405 0)
(-0.32674 0.14964201 0)
(-0.32733899 0.149905 0)
(-0.324247 0.148856 0)
(-0.324882 0.149011 0)
(-0.32551101 0.149194 0)
(-0.32230699 0.14855701 0)
(-0.32295799 0.148628 0)
(-0.323605 0.148728 0)
(-0.320346 0.148514 0)
(-0.32100001 0.1485 0)
(-0.32165399 0.148514 0)
(-0.31839499 0.148728 0)
(-0.319042 0.148628 0)
(-0.319693 0.14855701 0)
(-0.31648901 0.149194 0)
(-0.31711799 0.149011 0)
(-0.31775299 0.148856 0)
(-0.314661 0.149905 0)
(-0.31525999 0.14964201 0)
(-0.31586999 0.149405 0)
(-0.31294101 0.150849 0)
(-0.31349999 0.15051 0)
(-0.31407401 0.150195 0)
(-0.311358 0.152009 0)
(-0.311869 0.1516 0)
(-0.31239599 0.15121301 0)
(-0.30994099 0.153366 0)
(-0.31039301 0.15289301 0)
(-0.310866 0.15244099 0)
(-0.30871299 0.15489601 0)
(-0.3091 0.154369 0)
(-0.30950901 0.15385801 0)
(-0.307695 0.156574 0)
(-0.30801001 0.156 0)
(-0.30834901 0.155441 0)
(-0.306905 0.15837 0)
(-0.30714199 0.15775999 0)
(-0.30740499 0.157161 0)
(-0.30635601 0.160253 0)
(-0.30651101 0.15961801 0)
(-0.306694 0.158989 0)
(-0.306128 0.161542 0)
(-0.30622801 0.160895 0)
(-0.306021 -0.16271301 0)
(-0.306014 -0.162846 0)
(-0.30622801 -0.160895 0)
(-0.306128 -0.161542 0)
(-0.30605701 -0.162193 0)
(-0.306694 -0.158989 0)
(-0.30651101 -0.15961801 0)
(-0.30635601 -0.160253 0)
(-0.30740499 -0.157161 0)
(-0.30714199 -0.15775999 0)
(-0.306905 -0.15837 0)
(-0.30834901 -0.155441 0)
(-0.30801001 -0.156 0)
(-0.307695 -0.156574 0)
(-0.30950901 -0.15385801 0)
(-0.3091 -0.154369 0)
(-0.30871299 -0.15489601 0)
(-0.310866 -0.15244099 0)
(-0.31039301 -0.15289301 0)
(-0.30994099 -0.153366 0)
(-0.31239599 -0.15121301 0)
(-0.311869 -0.1516 0)
(-0.311358 -0.152009 0)
(-0.31407401 -0.150195 0)
(-0.31349999 -0.15051 0)
(-0.31294101 -0.150849 0)
(-0.31586999 -0.149405 0)
(-0.31525999 -0.14964201 0)
(-0.314661 -0.149905 0)
(-0.31775299 -0.148856 0)
(-0.31711799 -0.149011 0)
(-0.31648901 -0.149194 0)
(-0.319693 -0.14855701 0)
(-0.319042 -0.148628 0)
(-0.31839499 -0.148728 0)
(-0.32165399 -0.148514 0)
(-0.32100001 -0.1485 0)
(-0.320346 -0.148514 0)
(-0.323605 -0.148728 0)
(-0.32295799 -0.148628 0)
(-0.32230699 -0.14855701 0)
(-0.32551101 -0.149194 0)
(-0.324882 -0.149011 0)
(-0.324247 -0.148856 0)
(-0.32733899 -0.149905 0)
(-0.32674 -0.14964201 0)
(-0.32613 -0.149405 0)
(-0.329059 -0.150849 0)
(-0.3285 -0.15051 0)
(-0.32792601 -0.150195 0)
(-0.33064201 -0.152009 0)
(-0.33013099 -0.1516 0)
(-0.329604 -0.15121301 0)
(-0.332059 -0.153366 0)
(-0.33160701 -0.15289301 0)
(-0.33113399 -0.15244099 0)
(-0.333287 -0.15489601 0)
(-0.33289999 -0.154369 0)
(-0.33249101 -0.15385801 0)
(-0.33430499 -0.156574 0)
(-0.33399001 -0.156 0)
(-0.33365101 -0.155441 0)
(-0.33509499 -0.15837 0)
(-0.334858 -0.15775999 0)
(-0.33459499 -0.157161 0)
(-0.33564401 -0.160253 0)
(-0.335489 -0.15961801 0)
(-0.33530599 -0.158989 0)
(-0.33594301 -0.162193 0)
(-0.33587199 -0.161542 0)
(-0.33577201 -0.160895 0)
(-0.33598599 -0.16415399 0)
(-0.336 -0.1635 0)
(-0.33598599 -0.162846 0)
(-0.33577201 -0.166105 0)
(-0.33587199 -0.16545799 0)
(-0.33594301 -0.16480701 0)
(-0.33530599 -0.16801099 0)
(-0.335489 -0.167382 0)
(-0.33564401 -0.166747 0)
(-0.33459499 -0.16983899 0)
(-0.334858 -0.16924 0)
(-0.33509499 -0.16863 0)
(-0.33365101 -0.17155901 0)
(-0.33399001 -0.171 0)
(-0.33430499 -0.170426 0)
(-0.33249101 -0.173142 0)
(-0.33289999 -0.172631 0)
(-0.333287 -0.172104 0)
(-0.33113399 -0.174559 0)
(-0.33160701 -0.174107 0)
(-0.332059 -0.17363399 0)
(-0.329604 -0.175787 0)
(-0.33013099 -0.1754 0)
(-0.33064201 -0.174991 0)
(-0.32792601 -0.176805 0)
(-0.3285 -0.17648999 0)
(-0.329059 -0.17615101 0)
(-0.32613 -0.177595 0)
(-0.32674 -0.177358 0)
(-0.32733899 -0.177095 0)
(-0.324247 -0.17814399 0)
(-0.324882 -0.17798901 0)
(-0.32551101 -0.177806 0)
(-0.32230699 -0.178443 0)
(-0.32295799 -0.178372 0)
(-0.323605 -0.17827199 0)
(-0.320346 -0.178486 0)
(-0.32100001 -0.1785 0)
(-0.32165399 -0.178486 0)
(-0.31839499 -0.17827199 0)
(-0.319042 -0.178372 0)
(-0.319693 -0.178443 0)
(-0.31648901 -0.177806 0)
(-0.31711799 -0.17798901 0)
(-0.31775299 -0.17814399 0)
(-0.314661 -0.177095 0)
(-0.31525999 -0.177358 0)
(-0.31586999 -0.177595 0)
(-0.31294101 -0.17615101 0)
(-0.31349999 -0.17648999 0)
(-0.31407401 -0.176805 0)
(-0.311358 -0.174991 0)
(-0.311869 -0.1754 0)
(-0.31239599 -0.175787 0)
(-0.30994099 -0.17363399 0)
(-0.31039301 -0.174107 0)
(-0.310866 -0.174559 0)
(-0.30871299 -0.172104 0)
(-0.3091 -0.172631 0)
(-0.30950901 -0.173142 0)
(-0.307695 -0.170426 0)
(-0.30801001 -0.171 0)
(-0.30834901 -0.17155901 0)
(-0.306905 -0.16863 0)
(-0.30714199 -0.16924 0)
(-0.30740499 -0.16983899 0)
(-0.30635601 -0.166747 0)
(-0.30651101 -0.167382 0)
(-0.306694 -0.16801099 0)
(-0.30605701 -0.16480701 0)
(-0.306128 -0.16545799 0)
(-0.30622801 -0.166105 0)
(-0.30599999 -0.1635 0)
(-0.306014 -0.16415399 0)
(0.164986 -0.162846 0)
(0.16494299 -0.162193 0)
(0.16487201 -0.161542 0)
(0.164772 -0.160895 0)
(0.164644 -0.160253 0)
(0.164489 -0.15961801 0)
(0.164306 -0.158989 0)
(0.164095 -0.15837 0)
(0.163858 -0.15775999 0)
(0.16359501 -0.157161 0)
(0.163305 -0.156574 0)
(0.16299 -0.156 0)
(0.162651 -0.155441 0)
(0.162287 -0.15489601 0)
(0.1619 -0.154369 0)
(0.16149101 -0.15385801 0)
(0.16105901 -0.153366 0)
(0.160607 -0.15289301 0)
(0.160134 -0.15244099 0)
(0.159642 -0.152009 0)
(0.15913101 -0.1516 0)
(0.158604 -0.15121301 0)
(0.158059 -0.150849 0)
(0.1575 -0.15051 0)
(0.15692601 -0.150195 0)
(0.156339 -0.149905 0)
(0.15573999 -0.14964201 0)
(0.15513 -0.149405 0)
(0.154511 -0.149194 0)
(0.153882 -0.149011 0)
(0.153247 -0.148856 0)
(0.152605 -0.148728 0)
(0.151958 -0.148628 0)
(0.151307 -0.14855701 0)
(0.150654 -0.148514 0)
(0.15000001 -0.1485 0)
(0.14934599 -0.148514 0)
(0.148693 -0.14855701 0)
(0.14804199 -0.148628 0)
(0.147395 -0.148728 0)
(0.146753 -0.148856 0)
(0.146118 -0.149011 0)
(0.14548901 -0.149194 0)
(0.14487 -0.149405 0)
(0.14426 -0.14964201 0)
(0.14366101 -0.149905 0)
(0.14307401 -0.150195 0)
(0.1425 -0.15051 0)
(0.141941 -0.150849 0)
(0.141396 -0.15121301 0)
(0.14086901 -0.1516 0)
(0.140358 -0.152009 0)
(0.13986599 -0.15244099 0)
(0.139393 -0.15289301 0)
(0.138941 -0.153366 0)
(0.13850901 -0.15385801 0)
(0.1381 -0.154369 0)
(0.137713 -0.15489601 0)
(0.13734899 -0.155441 0)
(0.13700999 -0.156 0)
(0.136695 -0.156574 0)
(0.13640501 -0.157161 0)
(0.136142 -0.15775999 0)
(0.135905 -0.15837 0)
(0.135694 -0.158989 0)
(0.135511 -0.15961801 0)
(0.13535599 -0.160253 0)
(0.13522799 -0.160895 0)
(0.13512801 -0.161542 0)
(0.135057 -0.162193 0)
(0.135014 -0.162846 0)
(0.13500001 -0.1635 0)
(0.135014 -0.16415399 0)
(0.135057 -0.16480701 0)
(0.13512801 -0.16545799 0)
(0.13522799 -0.166105 0)
(0.13535599 -0.166747 0)
(0.135511 -0.167382 0)
(0.135694 -0.16801099 0)
(0.135905 -0.16863 0)
(0.136142 -0.16924 0)
(0.13640501 -0.16983899 0)
(0.136695 -0.170426 0)
(0.13700999 -0.171 0)
(0.13734899 -0.17155901 0)
(0.137713 -0.172104 0)
(0.1381 -0.172631 0)
(0.13850901 -0.173142 0)
(0.138941 -0.17363399 0)
(0.139393 -0.174107 0)
(0.13986599 -0.174559 0)
(0.140358 -0.174991 0)
(0.14086901 -0.1754 0)
(0.141396 -0.175787 0)
(0.141941 -0.17615101 0)
(0.1425 -0.17648999 0)
(0.14307401 -0.176805 0)
(0.14366101 -0.177095 0)
(0.14426 -0.177358 0)
(0.14487 -0.177595 0)
(0.14548901 -0.177806 0)
(0.146118 -0.17798901 0)
(0.146753 -0.17814399 0)
(0.147395 -0.17827199 0)
(0.14804199 -0.178372 0)
(0.148693 -0.178443 0)
(0.14934599 -0.178486 0)
(0.15000001 -0.1785 0)
(0.150654 -0.178486 0)
(0.151307 -0.178443 0)
(0.151958 -0.178372 0)
(0.152605 -0.17827199 0)
(0.153247 -0.17814399 0)
(0.153882 -0.17798901 0)
(0.154511 -0.177806 0)
(0.15513 -0.177595 0)
(0.15573999 -0.177358 0)
(0.156339 -0.177095 0)
(0.15692601 -0.176805 0)
(0.1575 -0.17648999 0)
(0.158059 -0.17615101 0)
(0.158604 -0.175787 0)
(0.15913101 -0.1754 0)
(0.159642 -0.174991 0)
(0.160134 -0.174559 0)
(0.160607 -0.174107 0)
(0.16105901 -0.17363399 0)
(0.16149101 -0.173142 0)
(0.1619 -0.172631 0)
(0.162287 -0.172104 0)
(0.162651 -0.17155901 0)
(0.16299 -0.171 0)
(0.163305 -0.170426 0)
(0.16359501 -0.16983899 0)
(0.163858 -0.16924 0)
(0.164095 -0.16863 0)
(0.164306 -0.16801099 0)
(0.164489 -0.167382 0)
(0.164644 -0.166747 0)
(0.164772 -0.166105 0)
(0.16487201 -0.16545799 0)
(0.16494299 -0.16480701 0)
(0.164986 -0.16415399 0)
(0.16500001 -0.1635 0)
(-0.42418101 -0.19447599 0.050023802)
(-0.42199999 -0.1945 0.050000001)
(-0.42199999 -0.1945 0.338)
(-0.42418101 -0.19447599 0.33797601)
(-0.42636201 -0.194405 0.050095201)
(-0.42636201 -0.194405 0.33790499)
(-0.42853999 -0.194286 0.33778599)
(-0.42853999 -0.194286 0.050214101)
(-0.43071601 -0.19411901 0.33761901)
(-0.43071601 -0.19411901 0.050380498)
(-0.43288699 -0.19390599 0.33740601)
(-0.43288699 -0.19390599 0.050594401)
(-0.43505299 -0.193644 0.33714399)
(-0.43505299 -0.193644 0.050855499)
(-0.43721199 -0.193336 0.33683601)
(-0.43721199 -0.193336 0.0511638)
(-0.439365 -0.192981 0.336481)
(-0.439365 -0.192981 0.0515192)
(-0.44150901 -0.192579 0.051921502)
(-0.44150901 -0.192579 0.336079)
(-0.44364399 -0.19213 0.052370399)
(-0.44364399 -0.19213 0.33563)
(-0.44576901 -0.191634 0.335134)
(-0.44576901 -0.191634 0.0528658)
(-0.447882 -0.191093 0.334593)
(-0.447882 -0.191093 0.053407401)
(-0.449983 -0.190505 0.334005)
(-0.449983 -0.190505 0.053994998)
(-0.45207101 -0.189872 0.333372)
(-0.45207101 -0.189872 0.054628301)
(-0.454144 -0.189193 0.33269301)
(-0.454144 -0.189193 0.055307001)
(-0.456202 -0.18846899 0.33196899)
(-0.456202 -0.18846899 0.056030702)
(-0.458244 -0.187701 0.33120099)
(-0.458244 -0.187701 0.056799199)
(-0.46026799 -0.18688799 0.33038801)
(-0.46026799 -0.18688799 0.057611998)
(-0.462275 -0.186031 0.32953101)
(-0.462275 -0.186031 0.058468901)
(-0.46426201 -0.185131 0.32863101)
(-0.46426201 -0.185131 0.059369199)
(-0.46622899 -0.184187 0.327687)
(-0.46622899 -0.184187 0.0603127)
(-0.46817499 -0.183201 0.32670099)
(-0.46817499 -0.183201 0.061298899)
(-0.470099 -0.182173 0.062327299)
(-0.470099 -0.182173 0.32567301)
(-0.472 -0.18110301 0.063397497)
(-0.472 -0.18110301 0.32460299)
(-0.47387701 -0.17999101 0.32349101)
(-0.47387701 -0.17999101 0.064508803)
(-0.47573 -0.178839 0.322339)
(-0.47573 -0.178839 0.065660901)
(-0.477557 -0.17764699 0.066853002)
(-0.477557 -0.17764699 0.32114699)
(-0.47935799 -0.176415 0.068084799)
(-0.47935799 -0.176415 0.319915)
(-0.48113099 -0.175144 0.069355503)
(-0.48113099 -0.175144 0.31864399)
(-0.482876 -0.17383499 0.070664696)
(-0.482876 -0.17383499 0.31733501)
(-0.48459199 -0.172488 0.072011597)
(-0.48459199 -0.172488 0.315988)
(-0.48627901 -0.171104 0.073395602)
(-0.48627901 -0.171104 0.31460401)
(-0.48955899 -0.168228 0.311728)
(-0.48955899 -0.168228 0.076272301)
(-0.49271101 -0.16521101 0.30871099)
(-0.49271101 -0.16521101 0.079289302)
(-0.49572799 -0.16205899 0.30555901)
(-0.49572799 -0.16205899 0.082441002)
(-0.498604 -0.158779 0.302279)
(-0.498604 -0.158779 0.085721202)
(-0.50133502 -0.155376 0.29887599)
(-0.50133502 -0.155376 0.089123897)
(-0.50391501 -0.151858 0.295358)
(-0.50391501 -0.151858 0.092642397)
(-0.50633901 -0.14823 0.29172999)
(-0.50633901 -0.14823 0.096270002)
(-0.50860298 -0.1445 0.28799999)
(-0.50860298 -0.1445 0.1)
(-0.510701 -0.14067499 0.28417501)
(-0.510701 -0.14067499 0.103825)
(-0.512631 -0.13676199 0.28026199)
(-0.512631 -0.13676199 0.107738)
(-0.51438802 -0.13276801 0.27626801)
(-0.51438802 -0.13276801 0.111732)
(-0.42199999 0.1945 0.050000001)
(-0.42199999 0.1945 0.338)
(0.31338799 0.1945 0.338)
(-0.42418101 0.19447599 0.050023802)
(-0.42418101 0.19447599 0.33797601)
(-0.42636201 0.194405 0.050095201)
(-0.42636201 0.194405 0.33790499)
(-0.42853999 0.194286 0.050214101)
(-0.42853999 0.194286 0.33778599)
(-0.43071601 0.19411901 0.050380498)
(-0.43071601 0.19411901 0.33761901)
(-0.43288699 0.19390599 0.050594401)
(-0.43288699 0.19390599 0.33740601)
(-0.43505299 0.193644 0.050855499)
(-0.43505299 0.193644 0.33714399)
(-0.43721199 0.193336 0.0511638)
(-0.43721199 0.193336 0.33683601)
(-0.439365 0.192981 0.0515192)
(-0.439365 0.192981 0.336481)
(-0.44150901 0.192579 0.051921502)
(-0.44150901 0.192579 0.336079)
(-0.44364399 0.19213 0.052370399)
(-0.44364399 0.19213 0.33563)
(-0.44576901 0.191634 0.0528658)
(-0.44576901 0.191634 0.335134)
(-0.447882 0.191093 0.053407401)
(-0.447882 0.191093 0.334593)
(-0.449983 0.190505 0.334005)
(-0.449983 0.190505 0.053994998)
(-0.45207101 0.189872 0.333372)
(-0.45207101 0.189872 0.054628301)
(-0.454144 0.189193 0.33269301)
(-0.454144 0.189193 0.055307001)
(-0.456202 0.18846899 0.33196899)
(-0.456202 0.18846899 0.056030702)
(-0.458244 0.187701 0.056799199)
(-0.458244 0.187701 0.33120099)
(-0.46026799 0.18688799 0.057611998)
(-0.46026799 0.18688799 0.33038801)
(-0.462275 0.186031 0.058468901)
(-0.462275 0.186031 0.32953101)
(-0.46426201 0.185131 0.059369199)
(-0.46426201 0.185131 0.32863101)
(-0.46622899 0.184187 0.0603127)
(-0.46622899 0.184187 0.327687)
(-0.46817499 0.183201 0.061298899)
(-0.46817499 0.183201 0.32670099)
(-0.470099 0.182173 0.32567301)
(-0.470099 0.182173 0.062327299)
(-0.472 0.18110301 0.32460299)
(-0.472 0.18110301 0.063397497)
(-0.47387701 0.17999101 0.32349101)
(-0.47387701 0.17999101 0.064508803)
(-0.47573 0.178839 0.322339)
(-0.47573 0.178839 0.065660901)
(-0.477557 0.17764699 0.066853002)
(-0.477557 0.17764699 0.32114699)
(-0.47935799 0.176415 0.068084799)
(-0.47935799 0.176415 0.319915)
(-0.48113099 0.175144 0.069355503)
(-0.48113099 0.175144 0.31864399)
(-0.482876 0.17383499 0.31733501)
(-0.482876 0.17383499 0.070664696)
(-0.48459199 0.172488 0.072011597)
(-0.48459199 0.172488 0.315988)
(-0.48627901 0.171104 0.31460401)
(-0.48627901 0.171104 0.073395602)
(-0.48955899 0.168228 0.076272301)
(-0.48955899 0.168228 0.311728)
(-0.49271101 0.16521101 0.079289302)
(-0.49271101 0.16521101 0.30871099)
(-0.49572799 0.16205899 0.082441002)
(-0.49572799 0.16205899 0.30555901)
(-0.498604 0.158779 0.085721202)
(-0.498604 0.158779 0.302279)
(-0.50133502 0.155376 0.089123897)
(-0.50133502 0.155376 0.29887599)
(-0.50391501 0.151858 0.092642397)
(-0.50391501 0.151858 0.295358)
(-0.50633901 0.14823 0.096270002)
(-0.50633901 0.14823 0.29172999)
(-0.50860298 0.1445 0.1)
(-0.50860298 0.1445 0.28799999)
(-0.510701 0.14067499 0.103825)
(-0.510701 0.14067499 0.28417501)
(-0.512631 0.13676199 0.107738)
(-0.512631 0.13676199 0.28026199)
(-0.51438802 0.13276801 0.111732)
(-0.51438802 0.13276801 0.27626801)
(0.31338799 -0.1945 0.338)
(-0.306014 0.162846 0.050000001)
(-0.306021 0.16271301 0.050000001)
(-0.30599999 0.1635 0.050000001)
(-0.306014 0.16415399 0.050000001)
(-0.30605701 0.16480701 0.050000001)
(-0.306128 0.16545799 0.050000001)
(-0.30622801 0.166105 0.050000001)
(-0.30635601 0.166747 0.050000001)
(-0.30651101 0.167382 0.050000001)
(-0.306694 0.16801099 0.050000001)
(-0.306905 0.16863 0.050000001)
(-0.30714199 0.16924 0.050000001)
(-0.30740499 0.16983899 0.050000001)
(-0.307695 0.170426 0.050000001)
(-0.30801001 0.171 0.050000001)
(-0.30834901 0.17155901 0.050000001)
(-0.30871299 0.172104 0.050000001)
(-0.3091 0.172631 0.050000001)
(-0.30950901 0.173142 0.050000001)
(-0.30994099 0.17363399 0.050000001)
(-0.31039301 0.174107 0.050000001)
(-0.310866 0.174559 0.050000001)
(-0.311358 0.174991 0.050000001)
(-0.311869 0.1754 0.050000001)
(-0.31239599 0.175787 0.050000001)
(-0.31294101 0.17615101 0.050000001)
(-0.31349999 0.17648999 0.050000001)
(-0.31407401 0.176805 0.050000001)
(-0.314661 0.177095 0.050000001)
(-0.31525999 0.177358 0.050000001)
(-0.31586999 0.177595 0.050000001)
(-0.31648901 0.177806 0.050000001)
(-0.31711799 0.17798901 0.050000001)
(-0.31775299 0.17814399 0.050000001)
(-0.31839499 0.17827199 0.050000001)
(-0.319042 0.178372 0.050000001)
(-0.319693 0.178443 0.050000001)
(-0.320346 0.178486 0.050000001)
(-0.32100001 0.1785 0.050000001)
(-0.32165399 0.178486 0.050000001)
(-0.32230699 0.178443 0.050000001)
(-0.32295799 0.178372 0.050000001)
(-0.323605 0.17827199 0.050000001)
(-0.324247 0.17814399 0.050000001)
(-0.324882 0.17798901 0.050000001)
(-0.32551101 0.177806 0.050000001)
(-0.32613 0.177595 0.050000001)
(-0.32674 0.177358 0.050000001)
(-0.32733899 0.177095 0.050000001)
(-0.32792601 0.176805 0.050000001)
(-0.3285 0.17648999 0.050000001)
(-0.329059 0.17615101 0.050000001)
(-0.329604 0.175787 0.050000001)
(-0.33013099 0.1754 0.050000001)
(-0.33064201 0.174991 0.050000001)
(-0.33113399 0.174559 0.050000001)
(-0.33160701 0.174107 0.050000001)
(-0.332059 0.17363399 0.050000001)
(-0.33249101 0.173142 0.050000001)
(-0.33289999 0.172631 0.050000001)
(-0.333287 0.172104 0.050000001)
(-0.33365101 0.17155901 0.050000001)
(-0.33399001 0.171 0.050000001)
(-0.33430499 0.170426 0.050000001)
(-0.33459499 0.16983899 0.050000001)
(-0.334858 0.16924 0.050000001)
(-0.33509499 0.16863 0.050000001)
(-0.33530599 0.16801099 0.050000001)
(-0.335489 0.167382 0.050000001)
(-0.33564401 0.166747 0.050000001)
(-0.33577201 0.166105 0.050000001)
(-0.33587199 0.16545799 0.050000001)
(-0.33594301 0.16480701 0.050000001)
(-0.33598599 0.16415399 0.050000001)
(-0.336 0.1635 0.050000001)
(-0.33598599 0.162846 0.050000001)
(-0.33594301 0.162193 0.050000001)
(-0.33587199 0.161542 0.050000001)
(-0.33577201 0.160895 0.050000001)
(-0.33564401 0.160253 0.050000001)
(-0.335489 0.15961801 0.050000001)
(-0.33530599 0.158989 0.050000001)
(-0.33509499 0.15837 0.050000001)
(-0.334858 0.15775999 0.050000001)
(-0.33459499 0.157161 0.050000001)
(-0.33430499 0.156574 0.050000001)
(-0.33399001 0.156 0.050000001)
(-0.33365101 0.155441 0.050000001)
(-0.333287 0.15489601 0.050000001)
(-0.33289999 0.154369 0.050000001)
(-0.33249101 0.15385801 0.050000001)
(-0.332059 0.153366 0.050000001)
(-0.33160701 0.15289301 0.050000001)
(-0.33113399 0.15244099 0.050000001)
(-0.33064201 0.152009 0.050000001)
(-0.33013099 0.1516 0.050000001)
(-0.329604 0.15121301 0.050000001)
(-0.329059 0.150849 0.050000001)
(-0.3285 0.15051 0.050000001)
(-0.32792601 0.150195 0.050000001)
(-0.32733899 0.149905 0.050000001)
(-0.32674 0.14964201 0.050000001)
(-0.32613 0.149405 0.050000001)
(-0.32551101 0.149194 0.050000001)
(-0.324882 0.149011 0.050000001)
(-0.324247 0.148856 0.050000001)
(-0.323605 0.148728 0.050000001)
(-0.32295799 0.148628 0.050000001)
(-0.32230699 0.14855701 0.050000001)
(-0.32165399 0.148514 0.050000001)
(-0.32100001 0.1485 0.050000001)
(-0.320346 0.148514 0.050000001)
(-0.319693 0.14855701 0.050000001)
(-0.319042 0.148628 0.050000001)
(-0.31839499 0.148728 0.050000001)
(-0.31775299 0.148856 0.050000001)
(-0.31711799 0.149011 0.050000001)
(-0.31648901 0.149194 0.050000001)
(-0.31586999 0.149405 0.050000001)
(-0.31525999 0.14964201 0.050000001)
(-0.314661 0.149905 0.050000001)
(-0.31407401 0.150195 0.050000001)
(-0.31349999 0.15051 0.050000001)
(-0.31294101 0.150849 0.050000001)
(-0.31239599 0.15121301 0.050000001)
(-0.311869 0.1516 0.050000001)
(-0.311358 0.152009 0.050000001)
(-0.310866 0.15244099 0.050000001)
(-0.31039301 0.15289301 0.050000001)
(-0.30994099 0.153366 0.050000001)
(-0.30950901 0.15385801 0.050000001)
(-0.3091 0.154369 0.050000001)
(-0.30871299 0.15489601 0.050000001)
(-0.30834901 0.155441 0.050000001)
(-0.30801001 0.156 0.050000001)
(-0.307695 0.156574 0.050000001)
(-0.30740499 0.157161 0.050000001)
(-0.30714199 0.15775999 0.050000001)
(-0.306905 0.15837 0.050000001)
(-0.306694 0.158989 0.050000001)
(-0.30651101 0.15961801 0.050000001)
(-0.30635601 0.160253 0.050000001)
(-0.30622801 0.160895 0.050000001)
(-0.306128 0.161542 0.050000001)
(-0.30605701 0.162193 0.050000001)
(0.164986 -0.162846 0.050000001)
(0.16500001 -0.1635 0.050000001)
(0.16494299 -0.162193 0.050000001)
(0.16487201 -0.161542 0.050000001)
(0.164772 -0.160895 0.050000001)
(0.164644 -0.160253 0.050000001)
(0.164489 -0.15961801 0.050000001)
(0.164306 -0.158989 0.050000001)
(0.164095 -0.15837 0.050000001)
(0.163858 -0.15775999 0.050000001)
(0.16359501 -0.157161 0.050000001)
(0.163305 -0.156574 0.050000001)
(0.16299 -0.156 0.050000001)
(0.162651 -0.155441 0.050000001)
(0.162287 -0.15489601 0.050000001)
(0.1619 -0.154369 0.050000001)
(0.16149101 -0.15385801 0.050000001)
(0.16105901 -0.153366 0.050000001)
(0.160607 -0.15289301 0.050000001)
(0.160134 -0.15244099 0.050000001)
(0.159642 -0.152009 0.050000001)
(0.15913101 -0.1516 0.050000001)
(0.158604 -0.15121301 0.050000001)
(0.158059 -0.150849 0.050000001)
(0.1575 -0.15051 0.050000001)
(0.15692601 -0.150195 0.050000001)
(0.156339 -0.149905 0.050000001)
(0.15573999 -0.14964201 0.050000001)
(0.15513 -0.149405 0.050000001)
(0.154511 -0.149194 0.050000001)
(0.153882 -0.149011 0.050000001)
(0.153247 -0.148856 0.050000001)
(0.152605 -0.148728 0.050000001)
(0.151958 -0.148628 0.050000001)
(0.151307 -0.14855701 0.050000001)
(0.150654 -0.148514 0.050000001)
(0.15000001 -0.1485 0.050000001)
(0.14934599 -0.148514 0.050000001)
(0.148693 -0.14855701 0.050000001)
(0.14804199 -0.148628 0.050000001)
(0.147395 -0.148728 0.050000001)
(0.146753 -0.148856 0.050000001)
(0.146118 -0.149011 0.050000001)
(0.14548901 -0.149194 0.050000001)
(0.14487 -0.149405 0.050000001)
(0.14426 -0.14964201 0.050000001)
(0.14366101 -0.149905 0.050000001)
(0.14307401 -0.150195 0.050000001)
(0.1425 -0.15051 0.050000001)
(0.141941 -0.150849 0.050000001)
(0.141396 -0.15121301 0.050000001)
(0.14086901 -0.1516 0.050000001)
(0.140358 -0.152009 0.050000001)
(0.13986599 -0.15244099 0.050000001)
(0.139393 -0.15289301 0.050000001)
(0.138941 -0.153366 0.050000001)
(0.13850901 -0.15385801 0.050000001)
(0.1381 -0.154369 0.050000001)
(0.137713 -0.15489601 0.050000001)
(0.13734899 -0.155441 0.050000001)
(0.13700999 -0.156 0.050000001)
(0.136695 -0.156574 0.050000001)
(0.13640501 -0.157161 0.050000001)
(0.136142 -0.15775999 0.050000001)
(0.135905 -0.15837 0.050000001)
(0.135694 -0.158989 0.050000001)
(0.135511 -0.15961801 0.050000001)
(0.13535599 -0.160253 0.050000001)
(0.13522799 -0.160895 0.050000001)
(0.13512801 -0.161542 0.050000001)
(0.135057 -0.162193 0.050000001)
(0.135014 -0.162846 0.050000001)
(0.13500001 -0.1635 0.050000001)
(0.135014 -0.16415399 0.050000001)
(0.135057 -0.16480701 0.050000001)
(0.13512801 -0.16545799 0.050000001)
(0.13522799 -0.166105 0.050000001)
(0.13535599 -0.166747 0.050000001)
(0.135511 -0.167382 0.050000001)
(0.135694 -0.16801099 0.050000001)
(0.135905 -0.16863 0.050000001)
(0.136142 -0.16924 0.050000001)
(0.13640501 -0.16983899 0.050000001)
(0.136695 -0.170426 0.050000001)
(0.13700999 -0.171 0.050000001)
(0.13734899 -0.17155901 0.050000001)
(0.137713 -0.172104 0.050000001)
(0.1381 -0.172631 0.050000001)
(0.13850901 -0.173142 0.050000001)
(0.138941 -0.17363399 0.050000001)
(0.139393 -0.174107 0.050000001)
(0.13986599 -0.174559 0.050000001)
(0.140358 -0.174991 0.050000001)
(0.14086901 -0.1754 0.050000001)
(0.141396 -0.175787 0.050000001)
(0.141941 -0.17615101 0.050000001)
(0.1425 -0.17648999 0.050000001)
(0.14307401 -0.176805 0.050000001)
(0.14366101 -0.177095 0.050000001)
(0.14426 -0.177358 0.050000001)
(0.14487 -0.177595 0.050000001)
(0.14548901 -0.177806 0.050000001)
(0.146118 -0.17798901 0.050000001)
(0.146753 -0.17814399 0.050000001)
(0.147395 -0.17827199 0.050000001)
(0.14804199 -0.178372 0.050000001)
(0.148693 -0.178443 0.050000001)
(0.14934599 -0.178486 0.050000001)
(0.15000001 -0.1785 0.050000001)
(0.150654 -0.178486 0.050000001)
(0.151307 -0.178443 0.050000001)
(0.151958 -0.178372 0.050000001)
(0.152605 -0.17827199 0.050000001)
(0.153247 -0.17814399 0.050000001)
(0.153882 -0.17798901 0.050000001)
(0.154511 -0.177806 0.050000001)
(0.15513 -0.177595 0.050000001)
(0.15573999 -0.177358 0.050000001)
(0.156339 -0.177095 0.050000001)